# Packages
 &PACKAGES
 useOBCS=.TRUE.,
 useKPP=.TRUE.,
 useCHEAPAML=.TRUE.,
 useMNC=.TRUE.,
 useDIAGNOSTICS=.FALSE.,
 &end
